Program Version,EnergyPlus-Windows-32 8.1.0.009, YMD=2015.01.14 14:49
! <Version>, Version ID
 Version, 8.1
! <Timesteps per Hour>, #TimeSteps, Minutes per TimeStep {minutes}
 Timesteps per Hour,  6, 10
! <System Convergence Limits>, Minimum System TimeStep {minutes}, Max HVAC Iterations,  Minimum Plant Iterations, Maximum Plant Iterations
 System Convergence Limits, 1, 20, 2, 8
! <Simulation Control>, Do Zone Sizing, Do System Sizing, Do Plant Sizing, Do Design Days, Do Weather Simulation
 Simulation Control, No, No, No, Yes, Yes
! <Output Reporting Tolerances>, Tolerance for Time Heating Setpoint Not Met, Tolerance for Zone Cooling Setpoint Not Met Time
 Output Reporting Tolerances, 0.200, 0.200, 
! <Site:GroundTemperature:BuildingSurface>, Months From Jan to Dec {C}
 Site:GroundTemperature:BuildingSurface,  18.00,  18.00,  18.00,  18.00,  18.00,  18.00,  18.00,  18.00,  18.00,  18.00,  18.00,  18.00
! <Site:GroundTemperature:FCfactorMethod>, Months From Jan to Dec {C}
 Site:GroundTemperature:FCfactorMethod,  -0.60,   1.34,   5.12,   8.69,  15.46,  19.02,  20.00,  18.20,  14.02,   8.83,   3.71,   0.32
! <Site:GroundTemperature:Shallow>, Months From Jan to Dec {C}
 Site:GroundTemperature:Shallow,  13.00,  13.00,  13.00,  13.00,  13.00,  13.00,  13.00,  13.00,  13.00,  13.00,  13.00,  13.00
! <Site:GroundTemperature:Deep>, Months From Jan to Dec {C}
 Site:GroundTemperature:Deep,  16.00,  16.00,  16.00,  16.00,  16.00,  16.00,  16.00,  16.00,  16.00,  16.00,  16.00,  16.00
! <Site:GroundReflectance>, Months From Jan to Dec {dimensionless}
 Site:GroundReflectance,  0.20,  0.20,  0.20,  0.20,  0.20,  0.20,  0.20,  0.20,  0.20,  0.20,  0.20,  0.20
! <Site:GroundReflectance:SnowModifier>, Normal, Daylighting {dimensionless}
 Site:GroundReflectance:SnowModifier,   1.000,   1.000
! <Site:GroundReflectance:Snow>, Months From Jan to Dec {dimensionless}
 Site:GroundReflectance:Snow,  0.20,  0.20,  0.20,  0.20,  0.20,  0.20,  0.20,  0.20,  0.20,  0.20,  0.20,  0.20
! <Site:GroundReflectance:Snow:Daylighting>, Months From Jan to Dec {dimensionless}
 Site:GroundReflectance:Snow:Daylighting,  0.20,  0.20,  0.20,  0.20,  0.20,  0.20,  0.20,  0.20,  0.20,  0.20,  0.20,  0.20
! <Environment:Weather Station>,Wind Sensor Height Above Ground {m},Wind Speed Profile Exponent {},Wind Speed Profile Boundary Layer Thickness {m},Air Temperature Sensor Height Above Ground {m},Wind Speed Modifier Coefficient [Internal],Temperature Modifier Coefficient [Internal]
Environment:Weather Station,10.000,0.140,270.000,1.500,1.586,9.750E-003
! <Site:Location>, Location Name, Latitude {N+/S- Deg}, Longitude {E+/W- Deg},  Time Zone Number {GMT+/-}, Elevation {m},  Standard Pressure at Elevation {Pa}, Standard RhoAir at Elevation
Site:Location,Denver Centennial  Golden   Nr CO USA TMY3 WMO#=724666,39.74,-105.18,-7.00,1829.00,81198,0.9651
! <Building Information>, Building Name,North Axis {deg},Terrain,  Loads Convergence Tolerance Value,Temperature Convergence Tolerance Value,  Solar Distribution,Maximum Number of Warmup Days,Minimum Number of Warmup Days
 Building Information,Building 1,0.000,Suburbs,4.00000E-002,0.40000,FullExterior,25,6
! <Inside Convection Algorithm>, Algorithm {Simple | TARP | CeilingDiffuser | AdaptiveConvectionAlgorithm}
Inside Convection Algorithm,TARP
! <Outside Convection Algorithm>, Algorithm {SimpleCombined | TARP | MoWitt | DOE-2 | AdaptiveConvectionAlgorithm}
Outside Convection Algorithm,DOE-2
! <Sky Radiance Distribution>, Value {Anisotropic}
Sky Radiance Distribution,Anisotropic
! <Zone Air Solution Algorithm>, Value {ThirdOrderBackwardDifference | AnalyticalSolution | EulerMethod}
 Zone Air Solution Algorithm, AnalyticalSolution
! <Zone Air Contaminant Balance Simulation>, Simulation {Yes/No}, Carbon Dioxide Concentration
 Zone Air Carbon Dioxide Balance Simulation, No,N/A
! <Zone Air Contaminant Balance Simulation>, Simulation {Yes/No}, Generic Contaminant Concentration
 Zone Air Generic Contaminant Balance Simulation, No,N/A
! <Environment:Site Atmospheric Variation>,Wind Speed Profile Exponent {},Wind Speed Profile Boundary Layer Thickness {m},Air Temperature Gradient Coefficient {K/m}
Environment:Site Atmospheric Variation,0.220,370.000,6.500000E-003
! <SurfaceGeometry>,Starting Corner,Vertex Input Direction,Coordinate System,Daylight Reference Point Coordinate System,Rectangular (Simple) Surface Coordinate System
 Surface Geometry,UpperLeftCorner,Counterclockwise,RelativeCoordinateSystem,RelativeCoordinateSystem,RelativeToZoneOrigin
! <Surface Heat Transfer Algorithm>, Value {CTF - ConductionTransferFunction | EMPD - MoisturePenetrationDepthConductionTransferFunction | CondFD - ConductionFiniteDifference | HAMT - CombinedHeatAndMoistureFiniteElement} - Description,Inside Surface Max Temperature Limit{C}, Surface Convection Coefficient Lower Limit {W/m2-K}, Surface Convection Coefficient Upper Limit {W/m2-K}
Surface Heat Transfer Algorithm, CTF - ConductionTransferFunction,200,0.10,1000.0
! <Shading Summary>, Number of Fixed Detached Shades, Number of Building Detached Shades, Number of Attached Shades
 Shading Summary,0,0,0
! <Zone Summary>, Number of Zones, Number of Zone Surfaces, Number of SubSurfaces
 Zone Summary,10,60,0
! <Zone Information>,Zone Name,North Axis {deg},Origin X-Coordinate {m},Origin Y-Coordinate {m},Origin Z-Coordinate {m},Centroid X-Coordinate {m},Centroid Y-Coordinate {m},Centroid Z-Coordinate {m},Type,Zone Multiplier,Zone List Multiplier,Minimum X {m},Maximum X {m},Minimum Y {m},Maximum Y {m},Minimum Z {m},Maximum Z {m},Ceiling Height {m},Volume {m3},Zone Inside Convection Algorithm {Simple-Detailed-CeilingDiffuser-TrombeWall},Zone Outside Convection Algorithm {Simple-Detailed-Tarp-MoWitt-DOE-2-BLAST}, Floor Area {m2},Exterior Gross Wall Area {m2},Exterior Net Wall Area {m2},Exterior Window Area {m2}, Number of Surfaces, Number of SubSurfaces, Number of Shading SubSurfaces,  Part of Total Building Area
 Zone Information, STORY 1 CORE ZONE,0.0,4.57,4.57,0.00,15.24,7.62,1.52,1,1,1,4.57,25.91,4.57,10.67,0.00,3.05,3.05,396.77,TARP,DOE-2,130.17,0.00,0.00,0.00,6,0,0,Yes
 Zone Information, STORY 1 EAST PERIMETER ZONE,0.0,25.91,4.57,0.00,28.67,7.62,1.52,1,1,1,25.91,30.48,0.00,15.24,0.00,3.05,3.05,148.63,TARP,DOE-2,48.76,46.45,46.45,0.00,6,0,0,Yes
 Zone Information, STORY 1 NORTH PERIMETER ZONE,0.0,4.57,10.67,0.00,15.24,13.17,1.52,1,1,1,0.00,30.48,10.67,15.24,0.00,3.05,3.05,360.91,TARP,DOE-2,118.41,92.90,92.90,0.00,6,0,0,Yes
 Zone Information, STORY 1 SOUTH PERIMETER ZONE,0.0,0.00,0.00,0.00,15.24,2.07,1.52,1,1,1,0.00,30.48,0.00,4.57,0.00,3.05,3.05,360.91,TARP,DOE-2,118.41,92.90,92.90,0.00,6,0,0,Yes
 Zone Information, STORY 1 WEST PERIMETER ZONE,0.0,0.00,0.00,0.00,1.81,7.62,1.52,1,1,1,0.00,4.57,0.00,15.24,0.00,3.05,3.05,148.63,TARP,DOE-2,48.76,46.45,46.45,0.00,6,0,0,Yes
 Zone Information, STORY 2 CORE ZONE,0.0,4.57,4.57,3.05,15.24,7.62,4.57,1,1,1,4.57,25.91,4.57,10.67,3.05,6.10,3.05,396.77,TARP,DOE-2,130.17,0.00,0.00,0.00,6,0,0,Yes
 Zone Information, STORY 2 EAST PERIMETER ZONE,0.0,25.91,4.57,3.05,28.67,7.62,4.57,1,1,1,25.91,30.48,0.00,15.24,3.05,6.10,3.05,148.63,TARP,DOE-2,48.76,46.45,46.45,0.00,6,0,0,Yes
 Zone Information, STORY 2 NORTH PERIMETER ZONE,0.0,4.57,10.67,3.05,15.24,13.17,4.57,1,1,1,0.00,30.48,10.67,15.24,3.05,6.10,3.05,360.91,TARP,DOE-2,118.41,92.90,92.90,0.00,6,0,0,Yes
 Zone Information, STORY 2 SOUTH PERIMETER ZONE,0.0,0.00,0.00,3.05,15.24,2.07,4.57,1,1,1,0.00,30.48,0.00,4.57,3.05,6.10,3.05,360.91,TARP,DOE-2,118.41,92.90,92.90,0.00,6,0,0,Yes
 Zone Information, STORY 2 WEST PERIMETER ZONE,0.0,0.00,0.00,3.05,1.81,7.62,4.57,1,1,1,0.00,4.57,0.00,15.24,3.05,6.10,3.05,148.63,TARP,DOE-2,48.76,46.45,46.45,0.00,6,0,0,Yes
! <Zone Internal Gains/Equipment Information - Nominal>,Zone Name, Floor Area {m2},# Occupants,Area per Occupant {m2/person},Occupant per Area {person/m2},Interior Lighting {W/m2},Electric Load {W/m2},Gas Load {W/m2},Other Load {W/m2},Hot Water Eq {W/m2},Steam Equipment {W/m2},Sum Loads per Area {W/m2},Outdoor Controlled Baseboard Heat
 Zone Internal Gains, STORY 1 CORE ZONE,130.17,7.4,17.696,5.651E-002,11.840,10.333,0.000,0.000,0.000,0.000,22.174,No
 Zone Internal Gains, STORY 1 EAST PERIMETER ZONE,48.76,2.8,17.696,5.651E-002,11.840,10.333,0.000,0.000,0.000,0.000,22.174,No
 Zone Internal Gains, STORY 1 NORTH PERIMETER ZONE,118.41,6.7,17.696,5.651E-002,11.840,10.333,0.000,0.000,0.000,0.000,22.174,No
 Zone Internal Gains, STORY 1 SOUTH PERIMETER ZONE,118.41,6.7,17.696,5.651E-002,11.840,10.333,0.000,0.000,0.000,0.000,22.174,No
 Zone Internal Gains, STORY 1 WEST PERIMETER ZONE,48.76,2.8,17.696,5.651E-002,11.840,10.333,0.000,0.000,0.000,0.000,22.174,No
 Zone Internal Gains, STORY 2 CORE ZONE,130.17,7.4,17.696,5.651E-002,11.840,10.333,0.000,0.000,0.000,0.000,22.174,No
 Zone Internal Gains, STORY 2 EAST PERIMETER ZONE,48.76,2.8,17.696,5.651E-002,11.840,10.333,0.000,0.000,0.000,0.000,22.174,No
 Zone Internal Gains, STORY 2 NORTH PERIMETER ZONE,118.41,6.7,17.696,5.651E-002,11.840,10.333,0.000,0.000,0.000,0.000,22.174,No
 Zone Internal Gains, STORY 2 SOUTH PERIMETER ZONE,118.41,6.7,17.696,5.651E-002,11.840,10.333,0.000,0.000,0.000,0.000,22.174,No
 Zone Internal Gains, STORY 2 WEST PERIMETER ZONE,48.76,2.8,17.696,5.651E-002,11.840,10.333,0.000,0.000,0.000,0.000,22.174,No
! <People Internal Gains - Nominal>,Name,Schedule Name,Zone Name,Zone Floor Area {m2},# Zone Occupants,Number of People {},People/Floor Area {person/m2},Floor Area per person {m2/person},Fraction Radiant,Fraction Convected,Sensible Fraction Calculation,Activity level,ASHRAE 55 Warnings,Carbon Dioxide Generation Rate,Nominal Minimum Number of People,Nominal Maximum Number of People 
 People Internal Gains, STORY 1 CORE ZONE DOE REF 2004 - OFFICE - OPENOFFICE PEOPLE,OFFICE WORK OCC,STORY 1 CORE ZONE,130.17,7.4,7.4,5.651E-002,17.696,0.300,0.700,AutoCalculate,OFFICE ACTIVITY,No,3.8200E-008,0,7
 People Internal Gains, STORY 1 EAST PERIMETER ZONE DOE REF 2004 - OFFICE - OPENOFFICE PEOPLE,OFFICE WORK OCC,STORY 1 EAST PERIMETER ZONE,48.76,2.8,2.8,5.651E-002,17.696,0.300,0.700,AutoCalculate,OFFICE ACTIVITY,No,3.8200E-008,0,3
 People Internal Gains, STORY 1 NORTH PERIMETER ZONE DOE REF 2004 - OFFICE - OPENOFFICE PEOPLE,OFFICE WORK OCC,STORY 1 NORTH PERIMETER ZONE,118.41,6.7,6.7,5.651E-002,17.696,0.300,0.700,AutoCalculate,OFFICE ACTIVITY,No,3.8200E-008,0,7
 People Internal Gains, STORY 1 SOUTH PERIMETER ZONE DOE REF 2004 - OFFICE - OPENOFFICE PEOPLE,OFFICE WORK OCC,STORY 1 SOUTH PERIMETER ZONE,118.41,6.7,6.7,5.651E-002,17.696,0.300,0.700,AutoCalculate,OFFICE ACTIVITY,No,3.8200E-008,0,7
 People Internal Gains, STORY 1 WEST PERIMETER ZONE DOE REF 2004 - OFFICE - OPENOFFICE PEOPLE,OFFICE WORK OCC,STORY 1 WEST PERIMETER ZONE,48.76,2.8,2.8,5.651E-002,17.696,0.300,0.700,AutoCalculate,OFFICE ACTIVITY,No,3.8200E-008,0,3
 People Internal Gains, STORY 2 CORE ZONE DOE REF 2004 - OFFICE - OPENOFFICE PEOPLE,OFFICE WORK OCC,STORY 2 CORE ZONE,130.17,7.4,7.4,5.651E-002,17.696,0.300,0.700,AutoCalculate,OFFICE ACTIVITY,No,3.8200E-008,0,7
 People Internal Gains, STORY 2 EAST PERIMETER ZONE DOE REF 2004 - OFFICE - OPENOFFICE PEOPLE,OFFICE WORK OCC,STORY 2 EAST PERIMETER ZONE,48.76,2.8,2.8,5.651E-002,17.696,0.300,0.700,AutoCalculate,OFFICE ACTIVITY,No,3.8200E-008,0,3
 People Internal Gains, STORY 2 NORTH PERIMETER ZONE DOE REF 2004 - OFFICE - OPENOFFICE PEOPLE,OFFICE WORK OCC,STORY 2 NORTH PERIMETER ZONE,118.41,6.7,6.7,5.651E-002,17.696,0.300,0.700,AutoCalculate,OFFICE ACTIVITY,No,3.8200E-008,0,7
 People Internal Gains, STORY 2 SOUTH PERIMETER ZONE DOE REF 2004 - OFFICE - OPENOFFICE PEOPLE,OFFICE WORK OCC,STORY 2 SOUTH PERIMETER ZONE,118.41,6.7,6.7,5.651E-002,17.696,0.300,0.700,AutoCalculate,OFFICE ACTIVITY,No,3.8200E-008,0,7
 People Internal Gains, STORY 2 WEST PERIMETER ZONE DOE REF 2004 - OFFICE - OPENOFFICE PEOPLE,OFFICE WORK OCC,STORY 2 WEST PERIMETER ZONE,48.76,2.8,2.8,5.651E-002,17.696,0.300,0.700,AutoCalculate,OFFICE ACTIVITY,No,3.8200E-008,0,3
! <Lights Internal Gains - Nominal>,Name,Schedule Name,Zone Name,Zone Floor Area {m2},# Zone Occupants,Lighting Level {W},Lights/Floor Area {W/m2},Lights per person {W/person},Fraction Return Air,Fraction Radiant,Fraction Short Wave,Fraction Convected,Fraction Replaceable,End-Use Category,Nominal Minimum Lighting Level {W},Nominal Maximum Lighting Level {W}
 Lights Internal Gains, STORY 1 CORE ZONE DOE REF 2004 - OFFICE - OPENOFFICE LIGHTS,OFFICE BLDG LIGHT,STORY 1 CORE ZONE,130.17,7.4,1541.299,11.840,209.524,0.000,0.000,0.000,1.000,1.000,General,0.000,1541.299
 Lights Internal Gains, STORY 1 EAST PERIMETER ZONE DOE REF 2004 - OFFICE - OPENOFFICE LIGHTS,OFFICE BLDG LIGHT,STORY 1 EAST PERIMETER ZONE,48.76,2.8,577.356,11.840,209.524,0.000,0.000,0.000,1.000,1.000,General,0.000,577.356
 Lights Internal Gains, STORY 1 NORTH PERIMETER ZONE DOE REF 2004 - OFFICE - OPENOFFICE LIGHTS,OFFICE BLDG LIGHT,STORY 1 NORTH PERIMETER ZONE,118.41,6.7,1401.995,11.840,209.524,0.000,0.000,0.000,1.000,1.000,General,0.000,1401.995
 Lights Internal Gains, STORY 1 SOUTH PERIMETER ZONE DOE REF 2004 - OFFICE - OPENOFFICE LIGHTS,OFFICE BLDG LIGHT,STORY 1 SOUTH PERIMETER ZONE,118.41,6.7,1401.995,11.840,209.524,0.000,0.000,0.000,1.000,1.000,General,0.000,1401.995
 Lights Internal Gains, STORY 1 WEST PERIMETER ZONE DOE REF 2004 - OFFICE - OPENOFFICE LIGHTS,OFFICE BLDG LIGHT,STORY 1 WEST PERIMETER ZONE,48.76,2.8,577.356,11.840,209.524,0.000,0.000,0.000,1.000,1.000,General,0.000,577.356
 Lights Internal Gains, STORY 2 CORE ZONE DOE REF 2004 - OFFICE - OPENOFFICE LIGHTS,OFFICE BLDG LIGHT,STORY 2 CORE ZONE,130.17,7.4,1541.299,11.840,209.524,0.000,0.000,0.000,1.000,1.000,General,0.000,1541.299
 Lights Internal Gains, STORY 2 EAST PERIMETER ZONE DOE REF 2004 - OFFICE - OPENOFFICE LIGHTS,OFFICE BLDG LIGHT,STORY 2 EAST PERIMETER ZONE,48.76,2.8,577.356,11.840,209.524,0.000,0.000,0.000,1.000,1.000,General,0.000,577.356
 Lights Internal Gains, STORY 2 NORTH PERIMETER ZONE DOE REF 2004 - OFFICE - OPENOFFICE LIGHTS,OFFICE BLDG LIGHT,STORY 2 NORTH PERIMETER ZONE,118.41,6.7,1401.995,11.840,209.524,0.000,0.000,0.000,1.000,1.000,General,0.000,1401.995
 Lights Internal Gains, STORY 2 SOUTH PERIMETER ZONE DOE REF 2004 - OFFICE - OPENOFFICE LIGHTS,OFFICE BLDG LIGHT,STORY 2 SOUTH PERIMETER ZONE,118.41,6.7,1401.995,11.840,209.524,0.000,0.000,0.000,1.000,1.000,General,0.000,1401.995
 Lights Internal Gains, STORY 2 WEST PERIMETER ZONE DOE REF 2004 - OFFICE - OPENOFFICE LIGHTS,OFFICE BLDG LIGHT,STORY 2 WEST PERIMETER ZONE,48.76,2.8,577.356,11.840,209.524,0.000,0.000,0.000,1.000,1.000,General,0.000,577.356
! <ElectricEquipment Internal Gains - Nominal>,Name,Schedule Name,Zone Name,Zone Floor Area {m2},# Zone Occupants,Equipment Level {W},Equipment/Floor Area {W/m2},Equipment per person {W/person},Fraction Latent,Fraction Radiant,Fraction Lost,Fraction Convected,End-Use SubCategory,Nominal Minimum Equipment Level {W},Nominal Maximum Equipment Level {W}
 ElectricEquipment Internal Gains, STORY 1 CORE ZONE DOE REF 2004 - OFFICE - OPENOFFICE ELECTRIC EQUIPMENT,OFFICE BLDG EQUIP,STORY 1 CORE ZONE,130.17,7.4,1345.134,10.333,182.857,0.000,0.000,0.000,1.000,General,0.000,1345.134
 ElectricEquipment Internal Gains, STORY 1 EAST PERIMETER ZONE DOE REF 2004 - OFFICE - OPENOFFICE ELECTRIC EQUIPMENT,OFFICE BLDG EQUIP,STORY 1 EAST PERIMETER ZONE,48.76,2.8,503.874,10.333,182.857,0.000,0.000,0.000,1.000,General,0.000,503.874
 ElectricEquipment Internal Gains, STORY 1 NORTH PERIMETER ZONE DOE REF 2004 - OFFICE - OPENOFFICE ELECTRIC EQUIPMENT,OFFICE BLDG EQUIP,STORY 1 NORTH PERIMETER ZONE,118.41,6.7,1223.559,10.333,182.857,0.000,0.000,0.000,1.000,General,0.000,1223.559
 ElectricEquipment Internal Gains, STORY 1 SOUTH PERIMETER ZONE DOE REF 2004 - OFFICE - OPENOFFICE ELECTRIC EQUIPMENT,OFFICE BLDG EQUIP,STORY 1 SOUTH PERIMETER ZONE,118.41,6.7,1223.559,10.333,182.857,0.000,0.000,0.000,1.000,General,0.000,1223.559
 ElectricEquipment Internal Gains, STORY 1 WEST PERIMETER ZONE DOE REF 2004 - OFFICE - OPENOFFICE ELECTRIC EQUIPMENT,OFFICE BLDG EQUIP,STORY 1 WEST PERIMETER ZONE,48.76,2.8,503.874,10.333,182.857,0.000,0.000,0.000,1.000,General,0.000,503.874
 ElectricEquipment Internal Gains, STORY 2 CORE ZONE DOE REF 2004 - OFFICE - OPENOFFICE ELECTRIC EQUIPMENT,OFFICE BLDG EQUIP,STORY 2 CORE ZONE,130.17,7.4,1345.134,10.333,182.857,0.000,0.000,0.000,1.000,General,0.000,1345.134
 ElectricEquipment Internal Gains, STORY 2 EAST PERIMETER ZONE DOE REF 2004 - OFFICE - OPENOFFICE ELECTRIC EQUIPMENT,OFFICE BLDG EQUIP,STORY 2 EAST PERIMETER ZONE,48.76,2.8,503.874,10.333,182.857,0.000,0.000,0.000,1.000,General,0.000,503.874
 ElectricEquipment Internal Gains, STORY 2 NORTH PERIMETER ZONE DOE REF 2004 - OFFICE - OPENOFFICE ELECTRIC EQUIPMENT,OFFICE BLDG EQUIP,STORY 2 NORTH PERIMETER ZONE,118.41,6.7,1223.559,10.333,182.857,0.000,0.000,0.000,1.000,General,0.000,1223.559
 ElectricEquipment Internal Gains, STORY 2 SOUTH PERIMETER ZONE DOE REF 2004 - OFFICE - OPENOFFICE ELECTRIC EQUIPMENT,OFFICE BLDG EQUIP,STORY 2 SOUTH PERIMETER ZONE,118.41,6.7,1223.559,10.333,182.857,0.000,0.000,0.000,1.000,General,0.000,1223.559
 ElectricEquipment Internal Gains, STORY 2 WEST PERIMETER ZONE DOE REF 2004 - OFFICE - OPENOFFICE ELECTRIC EQUIPMENT,OFFICE BLDG EQUIP,STORY 2 WEST PERIMETER ZONE,48.76,2.8,503.874,10.333,182.857,0.000,0.000,0.000,1.000,General,0.000,503.874
! <Shadowing/Sun Position Calculations> [Annual Simulations], Calculation Method,Value {days}, Allowable Number Figures in Shadow Overlap {}, Polygon Clipping Algorithm, Sky Diffuse Modeling Algorithm
Shadowing/Sun Position Calculations,AverageOverDaysInFrequency,7,15000,SutherlandHodgman,SimpleSkyDiffuseModeling
! <Infiltration Airflow Stats - Nominal>,Name,Schedule Name,Zone Name, Zone Floor Area {m2}, # Zone Occupants,Design Volume Flow Rate {m3/s},Volume Flow Rate/Floor Area {m3/s/m2},Volume Flow Rate/Exterior Surface Area {m3/s/m2},ACH - Air Changes per Hour,Equation A - Constant Term Coefficient {},Equation B - Temperature Term Coefficient {1/C},Equation C - Velocity Term Coefficient {s/m}, Equation D - Velocity Squared Term Coefficient {s2/m2}
 ZoneInfiltration Airflow Stats, STORY 1 CORE ZONE DOE REF 2004 - OFFICE - OPENOFFICE INFILTRATION,OFFICE INFIL QUARTER ON,STORY 1 CORE ZONE,130.17,7.4,0.000,0.000,N/A,0.000,1.000,0.000,0.000,0.000
 ZoneInfiltration Airflow Stats, STORY 1 EAST PERIMETER ZONE DOE REF 2004 - OFFICE - OPENOFFICE INFILTRATION,OFFICE INFIL QUARTER ON,STORY 1 EAST PERIMETER ZONE,48.76,2.8,1.404E-002,2.879E-004,3.023E-004,0.340,1.000,0.000,0.000,0.000
 ZoneInfiltration Airflow Stats, STORY 1 NORTH PERIMETER ZONE DOE REF 2004 - OFFICE - OPENOFFICE INFILTRATION,OFFICE INFIL QUARTER ON,STORY 1 NORTH PERIMETER ZONE,118.41,6.7,2.808E-002,2.372E-004,3.023E-004,0.280,1.000,0.000,0.000,0.000
 ZoneInfiltration Airflow Stats, STORY 1 SOUTH PERIMETER ZONE DOE REF 2004 - OFFICE - OPENOFFICE INFILTRATION,OFFICE INFIL QUARTER ON,STORY 1 SOUTH PERIMETER ZONE,118.41,6.7,2.808E-002,2.372E-004,3.023E-004,0.280,1.000,0.000,0.000,0.000
 ZoneInfiltration Airflow Stats, STORY 1 WEST PERIMETER ZONE DOE REF 2004 - OFFICE - OPENOFFICE INFILTRATION,OFFICE INFIL QUARTER ON,STORY 1 WEST PERIMETER ZONE,48.76,2.8,1.404E-002,2.879E-004,3.023E-004,0.340,1.000,0.000,0.000,0.000
 ZoneInfiltration Airflow Stats, STORY 2 CORE ZONE DOE REF 2004 - OFFICE - OPENOFFICE INFILTRATION,OFFICE INFIL QUARTER ON,STORY 2 CORE ZONE,130.17,7.4,3.935E-002,3.023E-004,3.023E-004,0.357,1.000,0.000,0.000,0.000
 ZoneInfiltration Airflow Stats, STORY 2 EAST PERIMETER ZONE DOE REF 2004 - OFFICE - OPENOFFICE INFILTRATION,OFFICE INFIL QUARTER ON,STORY 2 EAST PERIMETER ZONE,48.76,2.8,2.878E-002,5.902E-004,3.023E-004,0.697,1.000,0.000,0.000,0.000
 ZoneInfiltration Airflow Stats, STORY 2 NORTH PERIMETER ZONE DOE REF 2004 - OFFICE - OPENOFFICE INFILTRATION,OFFICE INFIL QUARTER ON,STORY 2 NORTH PERIMETER ZONE,118.41,6.7,6.387E-002,5.394E-004,3.023E-004,0.637,1.000,0.000,0.000,0.000
 ZoneInfiltration Airflow Stats, STORY 2 SOUTH PERIMETER ZONE DOE REF 2004 - OFFICE - OPENOFFICE INFILTRATION,OFFICE INFIL QUARTER ON,STORY 2 SOUTH PERIMETER ZONE,118.41,6.7,6.387E-002,5.394E-004,3.023E-004,0.637,1.000,0.000,0.000,0.000
 ZoneInfiltration Airflow Stats, STORY 2 WEST PERIMETER ZONE DOE REF 2004 - OFFICE - OPENOFFICE INFILTRATION,OFFICE INFIL QUARTER ON,STORY 2 WEST PERIMETER ZONE,48.76,2.8,2.878E-002,5.902E-004,3.023E-004,0.697,1.000,0.000,0.000,0.000
! <AirFlow Model>, Simple
 AirFlow Model, Simple
! <RoomAir Model>, Zone Name, Mixing/Mundt/UCSDDV/UCSDCV/UCSDUFI/UCSDUFE/User Defined
RoomAir Model,STORY 1 CORE ZONE,Mixing/Well-Stirred
RoomAir Model,STORY 1 EAST PERIMETER ZONE,Mixing/Well-Stirred
RoomAir Model,STORY 1 NORTH PERIMETER ZONE,Mixing/Well-Stirred
RoomAir Model,STORY 1 SOUTH PERIMETER ZONE,Mixing/Well-Stirred
RoomAir Model,STORY 1 WEST PERIMETER ZONE,Mixing/Well-Stirred
RoomAir Model,STORY 2 CORE ZONE,Mixing/Well-Stirred
RoomAir Model,STORY 2 EAST PERIMETER ZONE,Mixing/Well-Stirred
RoomAir Model,STORY 2 NORTH PERIMETER ZONE,Mixing/Well-Stirred
RoomAir Model,STORY 2 SOUTH PERIMETER ZONE,Mixing/Well-Stirred
RoomAir Model,STORY 2 WEST PERIMETER ZONE,Mixing/Well-Stirred
! <AirflowNetwork Model:Control>, No Multizone or Distribution/Multizone with Distribution/Multizone without Distribution/Multizone with Distribution only during Fan Operation
AirflowNetwork Model:Control,NoMultizoneOrDistribution
! <Zone Volume Capacitance Multiplier>, Sensible Heat Capacity Multiplier, Moisture Capacity Multiplier, Carbon Dioxide Capacity Multiplier, Generic Contaminant Capacity Multiplier
Zone Volume Capacitance Multiplier,   1.000 ,   1.000,   1.000,   1.000
! <Environment>,Environment Name,Environment Type, Start Date, End Date, Start DayOfWeek, Duration {#days}, Source:Start DayOfWeek,  Use Daylight Saving, Use Holidays, Apply Weekend Holiday Rule,  Use Rain Values, Use Snow Values
! <Environment:Special Days>, Special Day Name, Special Day Type, Source, Start Date, Duration {#days}
! <Environment:Daylight Saving>, Daylight Saving Indicator, Source, Start Date, End Date
! <Environment:WarmupDays>, NumberofWarmupDays
Environment,RUN PERIOD 1,WeatherFileRunPeriod,01/01,12/31,Sunday,365,Use RunPeriod Specified Day,No ,No ,No ,Yes,Yes
Environment:Daylight Saving,No,RunPeriod Object
Environment:WarmupDays,  6
! <Tabular Report>,Style,Unit Conversion
Tabular Report,HTML,None
! <Warmup Convergence Information>,Zone Name,Environment Type/Name,Average Warmup Temperature Difference {deltaC},Std Dev Warmup Temperature Difference {deltaC},Max Temperature Pass/Fail Convergence,Min Temperature Pass/Fail Convergence,Average Warmup Load Difference {W},Std Dev Warmup Load Difference {W},Heating Load Pass/Fail Convergence,Cooling Load Pass/Fail Convergence
 Warmup Convergence Information,STORY 1 CORE ZONE,RunPeriod: RUN PERIOD 1,2.6455709359E-003,1.3361936447E-003,Pass,Pass,0.0000000000,0.0000000000,Pass,Pass
 Warmup Convergence Information,STORY 1 EAST PERIMETER ZONE,RunPeriod: RUN PERIOD 1,9.2551713086E-003,7.2623871366E-003,Pass,Pass,0.0000000000,0.0000000000,Pass,Pass
 Warmup Convergence Information,STORY 1 NORTH PERIMETER ZONE,RunPeriod: RUN PERIOD 1,7.1344009731E-003,6.1831257303E-003,Pass,Pass,0.0000000000,0.0000000000,Pass,Pass
 Warmup Convergence Information,STORY 1 SOUTH PERIMETER ZONE,RunPeriod: RUN PERIOD 1,9.3212021827E-003,6.7272853755E-003,Pass,Pass,0.0000000000,0.0000000000,Pass,Pass
 Warmup Convergence Information,STORY 1 WEST PERIMETER ZONE,RunPeriod: RUN PERIOD 1,7.5894520086E-003,6.5661528849E-003,Pass,Pass,0.0000000000,0.0000000000,Pass,Pass
 Warmup Convergence Information,STORY 2 CORE ZONE,RunPeriod: RUN PERIOD 1,1.5446238574E-002,1.0854998674E-002,Pass,Pass,0.0000000000,0.0000000000,Pass,Pass
 Warmup Convergence Information,STORY 2 EAST PERIMETER ZONE,RunPeriod: RUN PERIOD 1,2.1324217585E-002,1.5874669092E-002,Pass,Pass,0.0000000000,0.0000000000,Pass,Pass
 Warmup Convergence Information,STORY 2 NORTH PERIMETER ZONE,RunPeriod: RUN PERIOD 1,2.0141040234E-002,1.5672503400E-002,Pass,Pass,0.0000000000,0.0000000000,Pass,Pass
 Warmup Convergence Information,STORY 2 SOUTH PERIMETER ZONE,RunPeriod: RUN PERIOD 1,2.1314775988E-002,1.5426462159E-002,Pass,Pass,0.0000000000,0.0000000000,Pass,Pass
 Warmup Convergence Information,STORY 2 WEST PERIMETER ZONE,RunPeriod: RUN PERIOD 1,1.9546169847E-002,1.5599433091E-002,Pass,Pass,0.0000000000,0.0000000000,Pass,Pass
! <Program Control Information:Threads/Parallel Sims>, Threading Supported,Maximum Number of Threads, Env Set Threads (OMP_NUM_THREADS), EP Env Set Threads (EP_OMP_NUM_THREADS), IDF Set Threads, Number of Threads Used (Interior Radiant Exchange), Number Nominal Surfaces, Number Parallel Sims
Program Control:Threads/Parallel Sims, No,1, N/A, N/A, N/A, N/A, N/A, N/A
End of Data
